
 OpenBabel06232117283D

 48 47  0  0  0  0  0  0  0  0999 V2000
   10.4761   -0.1291   -0.0000 C   0  0  0  0  0  0  0  0  0  0  0  0
    9.0984    0.5570    0.0000 C   0  0  0  0  0  0  0  0  0  0  0  0
    7.9627   -0.4817    0.0000 C   0  0  0  0  0  0  0  0  0  0  0  0
    6.6962    0.2191    0.0000 O   0  0  0  0  0  0  0  0  0  0  0  0
    5.5568   -0.5071   -0.0000 C   0  0  0  0  0  0  0  0  0  0  0  0
    5.5168   -1.7234   -0.0000 O   0  0  0  0  0  0  0  0  0  0  0  0
    4.3304    0.3856   -0.0000 C   0  0  0  0  0  0  0  0  0  0  0  0
    3.0056   -0.4105   -0.0000 C   0  0  0  0  0  0  0  0  0  0  0  0
    1.7846    0.5337   -0.0000 C   0  0  0  0  0  0  0  0  0  0  0  0
    0.4593   -0.2567   -0.0000 C   0  0  0  0  0  0  0  0  0  0  0  0
   -0.7453    0.7013    0.0000 C   0  0  0  0  0  0  0  0  0  0  0  0
   -1.9667   -0.0764    0.0000 O   0  0  0  0  0  0  0  0  0  0  0  0
   -3.1443    0.5870    0.0000 C   0  0  0  0  0  0  0  0  0  0  0  0
   -3.2465    1.7999    0.0000 O   0  0  0  0  0  0  0  0  0  0  0  0
   -4.3266   -0.3644    0.0000 C   0  0  0  0  0  0  0  0  0  0  0  0
   -5.6830    0.3767   -0.0000 C   0  0  0  0  0  0  0  0  0  0  0  0
   -6.8745   -0.6045   -0.0000 C   0  0  0  0  0  0  0  0  0  0  0  0
   -8.2155    0.1591    0.0000 C   0  0  0  0  0  0  0  0  0  0  0  0
   -9.4120   -0.8104    0.0000 C   0  0  0  0  0  0  0  0  0  0  0  0
  -10.6267   -0.0601   -0.0000 O   0  0  0  0  0  0  0  0  0  0  0  0
   11.2714    0.6196   -0.0000 H   0  0  0  0  0  0  0  0  0  0  0  0
   10.5940   -0.7558    0.8871 H   0  0  0  0  0  0  0  0  0  0  0  0
   10.5940   -0.7558   -0.8871 H   0  0  0  0  0  0  0  0  0  0  0  0
    9.0102    1.1961    0.8819 H   0  0  0  0  0  0  0  0  0  0  0  0
    9.0102    1.1961   -0.8819 H   0  0  0  0  0  0  0  0  0  0  0  0
    8.0244   -1.1097   -0.8938 H   0  0  0  0  0  0  0  0  0  0  0  0
    8.0244   -1.1097    0.8938 H   0  0  0  0  0  0  0  0  0  0  0  0
    4.3708    1.0337    0.8789 H   0  0  0  0  0  0  0  0  0  0  0  0
    4.3708    1.0337   -0.8789 H   0  0  0  0  0  0  0  0  0  0  0  0
    2.9688   -1.0545   -0.8825 H   0  0  0  0  0  0  0  0  0  0  0  0
    2.9688   -1.0545    0.8825 H   0  0  0  0  0  0  0  0  0  0  0  0
    1.8225    1.1783    0.8820 H   0  0  0  0  0  0  0  0  0  0  0  0
    1.8225    1.1783   -0.8820 H   0  0  0  0  0  0  0  0  0  0  0  0
    0.4117   -0.8996   -0.8825 H   0  0  0  0  0  0  0  0  0  0  0  0
    0.4117   -0.8996    0.8825 H   0  0  0  0  0  0  0  0  0  0  0  0
   -0.7247    1.3326    0.8934 H   0  0  0  0  0  0  0  0  0  0  0  0
   -0.7247    1.3326   -0.8934 H   0  0  0  0  0  0  0  0  0  0  0  0
   -4.2577   -1.0095   -0.8793 H   0  0  0  0  0  0  0  0  0  0  0  0
   -4.2577   -1.0095    0.8793 H   0  0  0  0  0  0  0  0  0  0  0  0
   -5.7429    1.0197    0.8820 H   0  0  0  0  0  0  0  0  0  0  0  0
   -5.7429    1.0197   -0.8820 H   0  0  0  0  0  0  0  0  0  0  0  0
   -6.8201   -1.2471   -0.8826 H   0  0  0  0  0  0  0  0  0  0  0  0
   -6.8201   -1.2471    0.8826 H   0  0  0  0  0  0  0  0  0  0  0  0
   -8.2709    0.8027    0.8819 H   0  0  0  0  0  0  0  0  0  0  0  0
   -8.2709    0.8027   -0.8819 H   0  0  0  0  0  0  0  0  0  0  0  0
   -9.3764   -1.4442   -0.8906 H   0  0  0  0  0  0  0  0  0  0  0  0
   -9.3764   -1.4442    0.8906 H   0  0  0  0  0  0  0  0  0  0  0  0
  -11.3768   -0.6825   -0.0000 H   0  0  0  0  0  0  0  0  0  0  0  0
  1  2  1  0  0  0  0
  1 21  1  0  0  0  0
  1 22  1  0  0  0  0
  1 23  1  0  0  0  0
  2  3  1  0  0  0  0
  2 24  1  0  0  0  0
  2 25  1  0  0  0  0
  3  4  1  0  0  0  0
  3 26  1  0  0  0  0
  3 27  1  0  0  0  0
  4  5  1  0  0  0  0
  5  6  2  0  0  0  0
  5  7  1  0  0  0  0
  7  8  1  0  0  0  0
  7 28  1  0  0  0  0
  7 29  1  0  0  0  0
  8  9  1  0  0  0  0
  8 30  1  0  0  0  0
  8 31  1  0  0  0  0
  9 10  1  0  0  0  0
  9 32  1  0  0  0  0
  9 33  1  0  0  0  0
 10 11  1  0  0  0  0
 10 34  1  0  0  0  0
 10 35  1  0  0  0  0
 11 12  1  0  0  0  0
 11 36  1  0  0  0  0
 11 37  1  0  0  0  0
 12 13  1  0  0  0  0
 13 14  2  0  0  0  0
 13 15  1  0  0  0  0
 15 16  1  0  0  0  0
 15 38  1  0  0  0  0
 15 39  1  0  0  0  0
 16 17  1  0  0  0  0
 16 40  1  0  0  0  0
 16 41  1  0  0  0  0
 17 18  1  0  0  0  0
 17 42  1  0  0  0  0
 17 43  1  0  0  0  0
 18 19  1  0  0  0  0
 18 44  1  0  0  0  0
 18 45  1  0  0  0  0
 19 20  1  0  0  0  0
 19 46  1  0  0  0  0
 19 47  1  0  0  0  0
 20 48  1  0  0  0  0
M  END
